142
Generated by ctcharge_nh4f-v0.1.0
F       -1.0328218    0.0000000    0.0000000
O       -2.0964766    0.5950675    2.3217037
H       -1.8472033   -0.1822907    2.8528805
H       -1.7505493    0.4182111    1.4319620
O       -0.7582121   -2.1493919    1.6642675
H       -1.0756890   -1.5372689    0.9874229
H       -0.8597453   -3.0352752    1.2833322
O       -6.0960882   -0.5740754   -0.7274942
H       -6.7837968   -0.8797978   -1.3469952
H       -6.5010304    0.1529349   -0.2204053
O       -3.4176688   -3.5868296    2.3046792
H       -3.3063663   -3.4442774    3.2641535
H       -2.6498322   -4.0952050    2.0164260
O       -3.3753756    0.3357744   -1.5010683
H       -2.7642976   -0.0470843   -0.8550095
H       -4.2484513   -0.0297161   -1.2829534
O       -5.6899260    3.5066364    1.7862979
H       -5.5037421    4.0656406    1.0144498
H       -4.8619273    3.4947322    2.2966688
O       -4.7150202    0.7618415    1.5722556
H       -4.9336880    1.3690609    0.8422300
H       -3.7889561    0.9672376    1.7949067
O       -2.8085339    2.5167088    0.2615065
H       -2.9214495    3.4610421    0.0728659
H       -3.1432231    2.0358056   -0.5116074
O       -5.4142104    2.2659143   -0.8269810
H       -4.7985848    2.9185027   -1.1912909
H       -5.6343871    1.7020592   -1.5945017
O       -0.7191437    2.4664526   -4.0898635
H       -1.6609505    2.3363379   -4.2619440
H       -0.6510463    3.1106124   -3.3626211
O       -7.3790632    1.3525082    0.9367690
H       -6.8588894    2.1487208    1.1370918
H       -7.3768625    0.8278999    1.7528117
O       -3.4259339   -1.4851994    0.5643496
H       -3.4475007   -2.1985562    1.2357971
H       -4.0477860   -0.8062015    0.8788817
O       -5.0248953   -1.4178098    3.4952575
H       -4.6229686   -0.6968036    2.9954065
H       -5.1733751   -2.1082330    2.8240579
O       -6.0066759   -2.5768950    1.2112228
H       -6.9148615   -2.9098993    1.2137947
H       -6.0096690   -1.8861210    0.5231191
O       -7.7531676   -0.7353586    2.7988940
H       -6.8978510   -1.1219620    3.0411012
H       -8.1865577   -1.4104349    2.2516352
O       -2.7796690   -5.1877322   -1.1186010
H       -3.1069948   -5.4248026   -1.9918735
H       -3.5923365   -5.1548185   -0.5600669
O       -3.4096317    1.5229925   -4.0032590
H       -4.3787777    1.5212759   -4.0761146
H       -3.2552952    1.0012682   -3.1950833
O       -8.7504189   -2.6133029    0.8562288
H       -9.6844362   -2.8937284    0.8877185
H       -8.8122862   -1.8089578    0.3028363
O       -3.1330628    3.2223109    2.9723373
H       -3.0218127    2.6462261    3.7530641
H       -2.8883498    2.6586816    2.2240320
O       -1.5965648   -2.6382444   -1.2436716
H       -2.0689171   -1.9130867   -0.8154683
H       -2.1851114   -3.4101947   -1.1723509
O       -8.4938095    2.0483722   -2.3951644
H       -8.3188682    2.9987954   -2.3987794
H       -8.8217908    1.9022577   -1.4917033
O       -4.5627099   -2.9020680   -1.5669751
H       -5.3885472   -3.3313626   -1.2876503
H       -4.2859384   -2.3663560   -0.8033008
O       -3.5354221    3.7646452   -2.3139182
H       -2.6077267    4.0312260   -2.2145367
H       -3.5344975    3.1070754   -3.0296848
O       -3.2805958   -3.0384820    5.0354187
H       -2.6002843   -2.3460644    5.0375488
H       -4.1060638   -2.5550105    4.8952208
O       -5.0079096   -5.1292220    0.4057352
H       -5.8190597   -4.8972223   -0.0660077
H       -4.8897541   -4.4312717    1.0676719
O       -5.4807312   -1.5255420   -3.8391681
H       -5.0847205   -1.9293562   -3.0487988
H       -4.7433540   -1.4140901   -4.4747330
O       -1.0889064   -2.0697802   -4.0062660
H       -0.9489417   -1.3385345   -3.3758522
H       -1.1177690   -2.8628147   -3.4510238
O       -5.9987068    1.0916045   -3.2248483
H       -5.9244011    0.1257736   -3.3585015
H       -6.9436216    1.2835082   -3.1025680
O       -7.5260937    4.1082181   -0.8027327
H       -7.0133397    4.9087065   -0.6382742
H       -6.8731961    3.3916103   -0.7173738
O       -9.3465705   -0.1977538   -0.2468970
H      -10.1895527   -0.0992939    0.2492227
H       -8.7780040    0.5064588    0.1075654
O       -7.8505556    3.1359035    3.5615723
H       -7.2407952    2.5925795    4.0813223
H       -7.2770022    3.5510219    2.9013258
O       -9.7521194    1.4044577    2.5901552
H       -9.2505248    2.1389787    2.9952494
H       -9.2249811    0.6256860    2.8080689
O       -5.7752903    1.2926496    4.1225127
H       -6.1801111    0.4206461    4.1770568
H       -5.5057287    1.3867924    3.1940718
O       -3.2671933   -1.0387607   -5.3460898
H       -2.4584375   -1.4324964   -4.9710308
H       -3.1828882   -0.0902989   -5.1763072
O       -7.9032097   -1.6776887   -2.6057180
H       -7.3169160   -1.6738340   -3.3761986
H       -8.7361081   -1.2537121   -2.8782445
O       -3.0491280    1.2332198    4.9454952
H       -4.0167291    1.1805051    4.9032648
H       -2.7175197    0.3533353    4.7370727
O      -10.1867411   -0.0841638   -2.8780714
H       -9.7351364    0.7193491   -3.1717099
H       -9.9550108   -0.1365285   -1.9320359
O       -3.2764509   -4.0324034   -3.8056540
H       -3.3266720   -3.3924280   -4.5221744
H       -3.6550204   -3.5882889   -3.0305359
O       -9.7677021    2.6391961    0.0262270
H       -9.1069167    3.3478185   -0.0138984
H       -9.6853254    2.2578196    0.9167413
O       -4.9858630    5.2652430   -0.3752411
H       -4.1950021    5.6342425    0.0438836
H       -4.6625065    4.9559520   -1.2323649
O       -7.1915419   -3.9346282   -1.1105800
H       -7.4693036   -3.3380349   -1.8240346
H       -7.8260945   -3.7420156   -0.4038450
O       -0.7003738   -4.8415143   -3.0802420
H       -0.9342643   -4.9004482   -2.1486582
H       -1.5502786   -4.7844733   -3.5450399
O       -2.2604562    5.3544880    0.2169660
H       -1.6654267    5.3210992    0.9758763
H       -1.6906808    5.2412530   -0.5592965
O      -11.7159275    0.0925712    1.0717207
H      -12.0535159    0.6462027    0.3408643
H      -11.3761265    0.7047116    1.7401372
O      -12.0139657    1.5065539   -1.2602393
H      -11.6653336    0.9808332   -1.9927240
H      -11.2989591    2.1080626   -1.0034717
O      -11.4266018   -2.5745802    0.3190676
H      -11.7244589   -1.7884525    0.8030878
H      -11.4703046   -2.3229876   -0.6059009
O       -0.8870669   -4.0760949    3.9013510
H       -1.6225603   -4.2341116    4.5032765
H       -1.0526615   -4.5904659    3.1020110
