145
Generated by ctcharge_nh4f-v0.1.0
F       -1.3328218   -0.0000000    0.0000000
O       -2.0765950    0.6411735    2.3280119
H       -1.8557199   -0.1597613    2.8299274
H       -1.8069481    0.4328705    1.3995021
O       -0.7309574   -2.0876736    1.6210205
H       -1.1124743   -1.4594072    0.9819226
H       -0.8919027   -2.9692237    1.2521807
O       -6.1128040   -0.5870509   -0.7179337
H       -6.7986596   -0.8806410   -1.3440475
H       -6.5044272    0.1488071   -0.2150164
O       -3.4279265   -3.6113751    2.3284870
H       -3.3107177   -3.4559521    3.2846345
H       -2.6494013   -4.0953898    2.0288886
O       -3.4224616    0.3640436   -1.5400444
H       -2.7484715    0.0560485   -0.8985061
H       -4.2552898   -0.0530732   -1.2737824
O       -5.6898347    3.5150211    1.7840268
H       -5.5099388    4.0697611    1.0078465
H       -4.8538876    3.4925847    2.2803761
O       -4.6940501    0.7615499    1.5808517
H       -4.9098338    1.3597463    0.8430045
H       -3.7579678    0.9479183    1.7873557
O       -2.8176804    2.5464596    0.2628734
H       -2.9604526    3.4757845    0.0354739
H       -3.1185083    2.0130827   -0.4899638
O       -5.4257376    2.2713950   -0.8246348
H       -4.7915247    2.9065522   -1.1865039
H       -5.6230642    1.6882791   -1.5837870
O       -0.7206293    2.4442257   -4.0694366
H       -1.6596287    2.3186059   -4.2624790
H       -0.6690179    3.1072762   -3.3590164
O       -7.3798770    1.3581971    0.9411417
H       -6.8496065    2.1500214    1.1318414
H       -7.3657401    0.8318366    1.7556183
O       -1.3249942   -1.2076229    4.2832616
H       -0.5152654   -0.8925615    4.7134567
H       -1.0358414   -1.8927727    3.6567743
O       -3.4912605   -1.5544184    0.5443081
H       -3.5008358   -2.2280824    1.2519289
H       -4.0276736   -0.8106253    0.8637327
O       -5.0281247   -1.4221478    3.4895351
H       -4.6358533   -0.7020008    2.9800057
H       -5.1881190   -2.1125409    2.8201867
O       -6.0208159   -2.5911375    1.2202948
H       -6.9333463   -2.9102904    1.2121737
H       -6.0011040   -1.9050887    0.5270878
O       -7.7541025   -0.7342176    2.7987543
H       -6.8985258   -1.1183558    3.0442740
H       -8.1803134   -1.4079879    2.2446223
O       -2.7757068   -5.1997875   -1.1157484
H       -3.1024759   -5.4210582   -1.9932276
H       -3.5915474   -5.1562565   -0.5622214
O       -3.4071361    1.5261238   -4.0052229
H       -4.3761025    1.5292166   -4.0801950
H       -3.2684107    1.0104515   -3.1858456
O       -8.7575323   -2.6150439    0.8515298
H       -9.6922692   -2.8923661    0.8810567
H       -8.8124654   -1.8113634    0.2969071
O       -3.1195747    3.2296866    2.9709515
H       -3.0165066    2.6439121    3.7451904
H       -2.8885616    2.6650672    2.2174833
O       -1.5811449   -2.6398614   -1.2348274
H       -2.0195211   -1.8919065   -0.8016758
H       -2.1915258   -3.3913595   -1.1448270
O       -8.4998269    2.0490951   -2.4037068
H       -8.3131807    2.9974026   -2.4022805
H       -8.8202933    1.9005575   -1.4982514
O       -4.5654608   -2.9195986   -1.5879486
H       -5.3881304   -3.3417393   -1.2916671
H       -4.2760184   -2.3753772   -0.8311053
O       -3.5431494    3.7771037   -2.3251425
H       -2.6131866    4.0274734   -2.2161774
H       -3.5436994    3.1008034   -3.0239821
O       -3.2814034   -3.0384141    5.0451075
H       -2.5988564   -2.3478678    5.0451385
H       -4.1025345   -2.5532065    4.8843840
O       -5.0085122   -5.1323740    0.4035893
H       -5.8168969   -4.8961950   -0.0708556
H       -4.8907107   -4.4341295    1.0655503
O       -5.4773087   -1.5284736   -3.8440784
H       -5.0803320   -1.9269310   -3.0505620
H       -4.7389226   -1.4083743   -4.4756736
O       -1.0786753   -2.0309069   -3.9769423
H       -0.9558191   -1.3052035   -3.3367578
H       -1.1369448   -2.8233927   -3.4230559
O       -5.9985086    1.0908684   -3.2280398
H       -5.9163367    0.1246476   -3.3526195
H       -6.9432202    1.2777686   -3.0989163
O       -7.5293459    4.1061621   -0.8086337
H       -7.0157300    4.9067978   -0.6487009
H       -6.8751345    3.3895128   -0.7233515
O       -9.3434706   -0.1956041   -0.2505972
H      -10.1835086   -0.0968069    0.2498966
H       -8.7696441    0.5042088    0.1040982
O       -7.8426639    3.1363505    3.5680337
H       -7.2353326    2.5893172    4.0867410
H       -7.2676703    3.5410286    2.9022945
O       -9.7507275    1.4099720    2.5960551
H       -9.2434191    2.1431026    2.9967880
H       -9.2214565    0.6304811    2.8068309
O       -5.7646624    1.2957380    4.1211801
H       -6.1646345    0.4215807    4.1751132
H       -5.4874532    1.3879745    3.1942550
O       -3.2605808   -1.0253572   -5.3568026
H       -2.4586114   -1.4163723   -4.9671871
H       -3.1918604   -0.0787838   -5.1671989
O       -7.9037112   -1.6815200   -2.6134459
H       -7.3076112   -1.6723560   -3.3763729
H       -8.7327081   -1.2540042   -2.8906170
O       -3.0396054    1.2321033    4.9550005
H       -4.0070068    1.1882066    4.8950739
H       -2.7151518    0.3593669    4.7067725
O      -10.1897152   -0.0864278   -2.8797110
H       -9.7393187    0.7163097   -3.1770366
H       -9.9506947   -0.1390317   -1.9353455
O       -3.2580391   -4.0312435   -3.8032653
H       -3.3254778   -3.3916602   -4.5182646
H       -3.6511665   -3.5985878   -3.0274102
O       -9.7702937    2.6386642    0.0273446
H       -9.1054238    3.3433049   -0.0167708
H       -9.6825931    2.2562600    0.9170694
O       -4.9909637    5.2738518   -0.3800156
H       -4.2006142    5.6417820    0.0404480
H       -4.6657011    4.9522867   -1.2319843
O       -7.1989774   -3.9448657   -1.1163753
H       -7.4649149   -3.3353088   -1.8233171
H       -7.8283039   -3.7470586   -0.4067120
O       -0.6915347   -4.8430938   -3.0749177
H       -0.9343209   -4.8954250   -2.1451684
H       -1.5386303   -4.7695099   -3.5429014
O       -2.2600782    5.3821795    0.2168879
H       -1.6734623    5.3021598    0.9787490
H       -1.6955705    5.2417163   -0.5574347
O      -11.7111639    0.0926208    1.0745799
H      -12.0489128    0.6442077    0.3420947
H      -11.3677754    0.7069749    1.7393416
O      -12.0146260    1.5033750   -1.2585612
H      -11.6620428    0.9745009   -1.9870039
H      -11.2997549    2.1041493   -0.9993152
O      -11.4326211   -2.5738020    0.3112334
H      -11.7255038   -1.7890134    0.8002165
H      -11.4572880   -2.3102551   -0.6111964
O       -0.8741892   -4.0770740    3.8986141
H       -1.6178371   -4.2197104    4.4950854
H       -1.0575029   -4.5701946    3.0893528
