145
Generated by ctcharge_nh4f-v0.1.0
F       -3.7328218    0.0000000    0.0000000
O       -1.9955414    0.4039546    1.8805045
H       -1.7375092   -0.4911653    2.1507198
H       -2.5700815    0.2494791    1.1011704
O       -1.1347656   -2.2116951    1.3854235
H       -1.6084323   -2.1696571    0.5357354
H       -1.1388638   -3.1611367    1.5858235
O       -6.3093522   -1.1124173   -0.8073236
H       -7.0470791   -1.2635539   -1.4166554
H       -6.5215809   -0.2954959   -0.3216864
O       -3.8069333   -3.9732512    2.6855232
H       -3.5679788   -3.6601577    3.5734258
H       -3.0014538   -4.3323932    2.2942113
O       -3.7851286   -0.8549884   -2.3651367
H       -3.8729460   -0.4898076   -1.4496407
H       -4.6536742   -1.2520718   -2.5138840
O       -5.7606218    3.2090733    1.8172477
H       -5.5434738    3.8262475    1.1032506
H       -4.9063040    3.0325883    2.2466688
O       -4.7642590    0.4867200    2.3170228
H       -4.7351840    0.3796798    1.3440669
H       -3.8407558    0.6792251    2.5345077
O       -2.8770071    2.5198144    0.0848054
H       -3.5215655    3.2436671    0.0249163
H       -3.4047961    1.7142797   -0.0774926
O       -5.3385077    2.0378382   -1.0684331
H       -4.8242212    2.5185474   -1.7344863
H       -5.5375803    1.1787567   -1.4680922
O       -1.1000208    1.4972585   -3.7791812
H       -1.9831651    1.5235256   -4.1724425
H       -1.0160970    2.3072894   -3.2455247
O       -7.2061308    1.0168392    0.8195237
H       -6.6296560    1.7824962    1.0030203
H       -7.3028056    0.5668029    1.6742189
O       -3.8350712   -2.5679867    0.2996188
H       -4.1101731   -2.8779232    1.1758277
H       -3.9566903   -1.5987705    0.2877559
O       -5.4190767   -1.7269829    3.8315199
H       -5.0552064   -1.0341529    3.2495398
H       -5.5696808   -2.4638126    3.2172003
O       -6.3912072   -2.7934943    1.4549784
H       -7.3149221   -3.0719174    1.4299142
H       -6.2795218   -2.2650596    0.6429005
O       -7.9538976   -0.7678584    2.8922743
H       -7.1496454   -1.1535835    3.2761926
H       -8.3259121   -1.4646822    2.3301422
O       -2.9923872   -5.1590152   -1.0254369
H       -3.3304308   -5.2348509   -1.9236469
H       -3.8117044   -5.1217575   -0.4827109
O       -3.8646590    1.2687150   -4.0591438
H       -4.8303261    1.2954536   -4.1609072
H       -3.7737732    0.5678503   -3.3743130
O       -9.0924392   -2.5597839    0.9046948
H      -10.0489112   -2.7406012    0.9781959
H       -9.0812569   -1.7523912    0.3527192
O       -3.0943047    3.0150544    2.7898952
H       -2.9424740    2.3373967    3.4731374
H       -2.8415021    2.5959374    1.9477298
O       -1.7504487   -2.6601659   -1.3425064
H       -2.4427654   -2.0311729   -1.6053766
H       -2.2604782   -3.4452309   -1.0682254
O       -8.5783272    2.1078036   -2.4242874
H       -8.2366402    3.0114948   -2.4124537
H       -8.8802362    1.9859305   -1.5067138
O       -5.0695357   -3.4752146   -1.9955242
H       -5.9492782   -3.7647197   -1.7023939
H       -4.6886143   -3.0806965   -1.1837308
O       -3.6168785    3.6703595   -2.6296814
H       -2.7318296    3.5923492   -2.2427808
H       -3.6513753    2.9928513   -3.3235512
O       -3.2764162   -2.8976110    5.2588186
H       -2.6210333   -2.1978178    5.1134744
H       -4.1329227   -2.4813657    5.0737791
O       -5.3381822   -5.2190042    0.4195086
H       -6.1387252   -4.8989005   -0.0148974
H       -5.2411307   -4.6618073    1.2048443
O       -1.2046201    0.2013470   -1.2564850
H       -1.3298624    0.7224158   -2.0662310
H       -2.0743881    0.1547364   -0.8297837
O       -5.8303952   -2.0061268   -4.2964282
H       -5.5949166   -2.6402120   -3.6009378
H       -4.9903031   -1.7824572   -4.7291937
O       -0.8409075   -1.5908526   -3.6421570
H       -0.9182858   -0.9836238   -2.8919943
H       -1.0928507   -2.4508562   -3.2697163
O       -6.3573398    0.6131550   -3.2357137
H       -6.5175462   -0.3154326   -3.4537659
H       -7.2086658    1.0053740   -2.9738880
O       -7.2787335    4.0186614   -0.8398798
H       -6.7072299    4.7587384   -0.6065845
H       -6.6876501    3.2442758   -0.8214294
O       -9.4309182   -0.1558710   -0.3529833
H      -10.2461218    0.0618621    0.1476627
H       -8.7567537    0.4538709   -0.0035029
O       -7.7352879    2.8411176    3.8426703
H       -7.2118954    2.3030798    4.4505502
H       -7.1181879    3.1173980    3.1474631
O       -9.7258128    1.4312610    2.5777706
H       -9.2175071    2.0758468    3.1059354
H       -9.2543319    0.6029588    2.7473660
O       -5.7220522    0.9763609    4.8537286
H       -6.0270936    0.0694751    4.9686935
H       -5.5914521    1.0690206    3.8970785
O       -3.2145875   -1.2436265   -5.2209531
H       -2.4413801   -1.2945724   -4.6319543
H       -3.4553256   -0.3074273   -5.2119348
O       -8.2222599   -1.8323259   -2.8771437
H       -7.7593999   -1.9582402   -3.7145626
H       -9.0177481   -1.3029314   -3.0683455
O       -2.8746460    1.0318492    4.7460620
H       -3.7896683    0.9830481    5.0687074
H       -2.6165654    0.1391551    4.4770991
O      -10.2945127    0.0317077   -2.9780325
H       -9.7826616    0.8065210   -3.2493713
H      -10.0680320   -0.0625892   -2.0340786
O       -3.0117851   -3.7716397   -3.9005827
H       -3.1952847   -3.1723014   -4.6337617
H       -3.6722814   -3.5645646   -3.2224883
O       -9.5567837    2.6799077    0.0911193
H       -8.8319120    3.3231291    0.0595522
H       -9.5139471    2.2708852    0.9748734
O       -4.6087873    4.8616509   -0.2553170
H       -3.7913797    5.2997806    0.0360803
H       -4.4459847    4.6523590   -1.1866085
O       -7.6929679   -3.9899717   -1.0936492
H       -7.9933959   -3.4067864   -1.8078353
H       -8.2116571   -3.6965364   -0.3278600
O       -0.6816691   -4.9020369   -2.9032974
H       -1.0473043   -4.9111048   -2.0123717
H       -1.4257219   -4.6093624   -3.4551083
O       -1.8828176    5.3266384    0.1324510
H       -1.4160940    5.0447784    0.9271464
H       -1.5759135    4.7353865   -0.5705570
O      -11.7786550    0.3926108    0.9675458
H      -12.0452404    0.9919025    0.2442257
H      -11.3789392    0.9501172    1.6510403
O      -11.8840048    1.8898340   -1.3395712
H      -11.5773006    1.3276098   -2.0634473
H      -11.1090641    2.3899169   -1.0437189
O      -11.8118290   -2.3732987    0.6055944
H      -11.9501862   -1.4740780    0.9456613
H      -11.9893030   -2.3092414   -0.3346484
O       -1.0420791   -4.1020164    3.9461563
H       -1.7516832   -4.1119336    4.6002617
H       -1.2281299   -4.7974395    3.3037618
