161
Generated by ctcharge_nh4f-v0.1.0
N        3.8066644   -0.0000000   -0.0000000
H        4.1409437   -0.9549146   -0.0920226
H        4.1252048    0.5755565   -0.7735825
H        4.0920729    0.3957803    0.8884681
H        2.7044653   -0.0000000    0.0000000
O        1.5685919    1.2516749   -1.3486091
H        1.6046691    2.2029708   -1.1373822
H        0.7321184    0.9570810   -0.9549716
O        4.2626620   -2.5067157   -1.1091939
H        3.5981116   -2.1534537   -1.7252206
H        4.4573710   -3.3869451   -1.4746334
O        3.9243932    2.8115894   -0.0438505
H        3.2057976    2.5624459    0.5552429
H        4.1851700    3.7080006    0.2414682
O        4.6674590    5.1836870    1.1596563
H        4.8646225    4.6348945    1.9394696
H        3.7419552    5.4370190    1.2866938
O        5.6846022   -0.1754021    5.0919548
H        5.1398820   -0.9804352    5.0899396
H        6.5254455   -0.4380778    4.6942981
O        4.3167804    1.4199185   -2.5137965
H        3.8078430    2.1824822   -2.1986874
H        3.6688897    0.7302293   -2.7684924
O        4.9687574    3.1007700    2.9865123
H        4.5416010    2.4061026    2.4686422
H        5.9075054    2.8569959    3.0072954
O        0.9914962   -1.8234187   -0.8979273
H        0.0364668   -1.6613345   -0.9138759
H        1.1595044   -2.4313580   -1.6447612
O        2.3925306    1.8497099    2.0686498
H        2.5606763    1.5194008    2.9666304
H        1.5615397    1.4310774    1.7881810
O        6.3458964    1.4174981    0.0843297
H        6.0459711    1.0762300    0.9389455
H        5.7515628    2.1506146   -0.1444209
O        4.9579803    0.3063754    2.4959111
H        5.1686943    0.4025705    3.4440249
H        4.7966320   -0.6440837    2.3995313
O        7.5929923   -0.4929244    2.8944655
H        7.1354251   -0.7959651    2.0887853
H        7.5743216    0.4752107    2.8126007
O        1.9552514    4.6020573    1.5657390
H        1.0893181    4.8632414    1.9094923
H        2.0802443    3.6984627    1.9027925
O        1.3696420   -0.5070269    4.4470265
H        1.4965916    0.4360926    4.6203715
H        1.3077496   -0.5744568    3.4754022
O        6.3157066   -1.3981259    0.5698772
H        5.8408857   -2.2366253    0.4942677
H        6.3917077   -1.0912531   -0.3516671
O        1.6790564   -3.5410971   -2.9635024
H        0.8674513   -4.0896745   -3.0025885
H        1.7217904   -3.0807756   -3.8126308
O        1.2351826   -0.6312248    1.6520188
H        1.9188510   -1.3219842    1.6273256
H        0.4220700   -1.1002619    1.4001704
O       -0.6237368    4.1584670    2.5862818
H       -1.5803314    4.0826026    2.7601443
H       -0.2636302    3.4321277    3.1267016
O        3.9517717   -4.9045669    0.3122319
H        4.8785492   -4.7069611    0.5168976
H        3.9676994   -5.1154483   -0.6321339
O        7.6410874    2.3459315    2.4190536
H        8.5875200    2.2663156    2.6008950
H        7.6200100    2.5065555    1.4620318
O       -0.9240761    3.3508459   -1.7460665
H       -0.0162152    3.7020513   -1.6730619
H       -1.0016668    2.7612036   -0.9747421
O       -1.2977396   -1.2434440    4.1405172
H       -0.4148653   -0.9729764    4.4559399
H       -1.1262038   -2.0112789    3.5759808
O        6.2729826   -0.5591418   -2.1056240
H        5.7490086    0.2528592   -2.1380275
H        6.9873572   -0.4185392   -2.7528598
O        8.4725982   -2.4056441   -1.2827638
H        7.6898585   -2.7941024   -0.8677771
H        8.3119701   -2.4610082   -2.2488524
O       -0.2474821    1.6637057    3.7302701
H       -0.9272044    1.5683133    4.4107934
H       -0.6063938    1.1629235    2.9824340
O        1.2044437   -4.1315358    0.6754510
H        2.0900997   -4.4815750    0.4936566
H        1.1408546   -3.2944704    0.1787815
O        3.6091139   -2.1969537    1.6147873
H        3.4707363   -2.4824126    2.5316439
H        3.6301248   -2.9950901    1.0657646
O        2.8135213   -0.8206459   -2.7490071
H        2.4755064   -1.1062725   -3.6215868
H        2.0218512   -0.6610315   -2.2143666
O        6.3924395    4.2096721   -0.8941254
H        6.0119174    4.8098108   -0.2369770
H        7.2741558    3.9769477   -0.5631531
O        4.1782533   -4.7748969   -2.6321183
H        3.2484583   -4.5362812   -2.7924798
H        4.6569807   -4.2478816   -3.2886294
O        3.3380627    1.5674890    4.7471806
H        4.0032272    0.9723042    5.1155890
H        3.8232200    2.3730103    4.5239929
O       -1.3733821   -5.0480739    1.3058384
H       -0.4496116   -4.9723841    1.0153767
H       -1.8774686   -5.2671341    0.5076213
O        8.7158116    0.3387977   -0.9345158
H        8.6788652   -0.6353271   -1.0252748
H        7.8025963    0.5711312   -0.6917476
O       10.0133707    1.1915719    1.5712829
H       10.3294168    0.6130970    2.2997810
H        9.5063829    0.5848444    1.0115602
O       -0.1029386    2.1393531    0.6772741
H       -0.3740380    2.8995888    1.2164338
H       -0.8093098    1.4857081    0.7962494
O        1.6491320    4.0657417   -1.1901028
H        2.4691370    4.2481027   -1.6745411
H        1.8040894    4.3417004   -0.2703836
O        4.0973504    4.2437674   -2.6356054
H        4.5220320    4.1852145   -3.4964708
H        4.8242734    4.2565510   -1.9971003
O        1.5255166   -3.1434576    3.2714748
H        1.3686995   -3.5412215    2.3980762
H        0.7417895   -3.3738418    3.7881844
O        8.8718841    3.1054892   -0.0963830
H        9.5962573    2.9844229    0.5292138
H        8.8299038    2.2639048   -0.5684125
O        6.5148056    2.8494995   -3.4703382
H        6.7527439    3.3833338   -2.7013318
H        5.7505970    2.3281291   -3.1776303
O        8.1806104    0.5843870   -3.7389695
H        7.7078884    1.4275018   -3.8489820
H        8.7063511    0.6949626   -2.9354642
O        1.6190755    1.2026617   -4.3107012
H        1.6429703    1.2597377   -3.3430889
H        0.6757801    1.2980218   -4.5116221
O       10.4092519   -0.7809543    3.3675536
H       10.6168523   -1.3901463    2.6466277
H        9.4471472   -0.8281959    3.4567657
O        5.0486406   -2.3547470   -3.9193373
H        5.1775631   -1.8853324   -3.0790992
H        4.6296073   -1.6911986   -4.4894201
O        7.8784368   -2.3005278   -3.9670230
H        6.9241295   -2.4139384   -4.1155833
H        8.0895314   -1.4149944   -4.2872760
O        4.2099608    0.1667557   -5.1076852
H        4.8612834    0.7738259   -4.7457211
H        3.3541256    0.5968659   -4.9637538
O        1.5410855   -1.5890113   -5.0573225
H        1.7636174   -0.7610721   -5.4952880
H        0.6415992   -1.4650036   -4.7050967
O       10.3543045   -1.7711378    0.7154202
H        9.8359237   -2.0946013   -0.0378901
H       11.0336737   -1.2031163    0.3103218
O        6.7469975   -4.1874719    0.2837102
H        7.2357372   -4.9043265   -0.1254819
H        7.2975836   -3.9017939    1.0434891
O        8.4563476   -3.2520326    2.2343766
H        8.0946599   -2.4635221    2.6542425
H        9.2494511   -2.9415930    1.7752627
O       11.6037973    0.3434045   -0.5877976
H       10.7688872    0.4595827   -1.0557977
H       11.5199198    0.9055942    0.1932847
O        3.7189926   -2.0092749    4.4470437
H        2.9399943   -1.4185215    4.4877056
H        3.3172651   -2.8805160    4.5373496
