8
Total charge: 0 ; Unpaired electrons: 10 ; Generated by mindlessgen-v0.4.1.dev46+g6bb74ea
H       -1.5899416   -1.3513977    2.8372277
H        1.5050748   -1.0523066   -3.5071496
H        2.3611917    2.3768650    1.1165873
B       -0.1573388   -0.1424562    1.5494511
N       -0.9489190   -0.8289677    2.2597718
At      -0.1262198    2.4851040   -2.3250082
Np       1.4992937    0.9277698   -0.0920048
Bk       2.2815149    0.2040496   -1.8154578
