9
Total charge: 1 ; Unpaired electrons: 4 ; Generated by mindlessgen-v0.4.1.dev46+g6bb74ea
H        0.4258134   -1.7171587   -0.8797483
H        2.7911641   -2.2856438    1.4242259
H       -0.2117898   -1.1028023    2.2863033
H       -1.6876718    2.1636190   -1.7858437
Be       1.9404459    1.9209842    2.2429753
Be      -1.1288777    1.6692139   -0.7042038
F        1.6214972    0.8594570    1.2043821
Ac       0.4850809    0.8981758    1.3461512
Es       1.1903488   -1.5570125    0.8133249
