12
Total charge: 0 ; Unpaired electrons: 4 ; Generated by mindlessgen-v0.4.1.dev46+g6bb74ea
H       -0.6843289    1.5512587    1.5713668
H       -3.3454101    1.2265822    1.0863154
H       -2.7648664   -4.5798190    0.4758975
H       -2.9187534   -4.1913226   -0.1795542
H        1.7089725    0.4081690   -0.8644384
H        1.0494941   -1.1075447   -3.0307454
He      -0.4048190    1.2952144   -2.4716372
C       -0.9827273   -0.5634661   -0.4248113
K        1.3270342   -0.0863614    1.6750029
K       -1.0524533   -2.9373967    0.8186425
Fm      -1.7504021    0.6586406    0.9139480
No       0.6191856   -0.4902050   -1.5043348
