8
Total charge: 0 ; Unpaired electrons: 7 ; Generated by mindlessgen-v0.4.1.dev46+g6bb74ea
H       -3.5244853   -2.1691061   -2.2286457
H        1.1988649    1.2089242    1.5994244
H        0.4505969    2.7091874   -1.6040301
O        0.0639702    1.8222764   -1.5271838
F       -0.8822729   -2.5242261   -2.9496109
S        0.5109862    0.1741169    1.1513480
Cm      -1.6590045   -1.4863003   -2.0450755
Lr      -0.4292869    0.1956012   -0.9982427
