10
Total charge: 1 ; Unpaired electrons: 11 ; Generated by mindlessgen-v0.4.1.dev46+g6bb74ea
H       -0.4610708   -0.4704799   -0.5916948
H        0.8944590   -0.0593483    0.0023355
H        0.8513381   -3.7716316    1.3703014
H       -1.7582890    1.2666280   -2.2622059
N       -0.3282292   -0.7700084    1.3488273
N        0.2340158   -0.8335702    0.0151061
S       -1.7394471    1.1566912   -0.9412655
K       -2.8955767   -0.7867175    1.0490996
Bk      -1.0218442    1.5315028    1.3171388
Cf       0.2709179   -2.2117129    1.0592985
