10
Total charge: 1 ; Unpaired electrons: 10 ; Generated by mindlessgen-v0.4.1.dev46+g6bb74ea
H       -1.9848047   -4.5095640    0.7257581
H       -0.7102887   -1.9994644   -1.8951387
H        2.6110013    1.5018535   -2.7652922
H       -1.5017076   -0.4833638   -1.1041978
H       -4.0385771   -2.3520280    0.8500727
H       -0.0747918   -1.3606395   -0.2460182
Be      -0.1261601   -0.6888637   -1.5688572
B       -1.2915561   -1.7553997   -0.7019410
Np      -2.6619320   -3.0781670    0.4431839
Am       1.4226253    0.5961625   -2.3785559
