9
Total charge: 0 ; Unpaired electrons: 4 ; Generated by mindlessgen-v0.4.1.dev46+g6bb74ea
H        2.7542272    1.1172929    0.2963095
H       -1.9161094    2.4402850    1.3689493
H       -0.5524802   -1.8012476    0.6854486
H       -0.9614565   -2.8755914   -2.2401120
C       -1.2772348    0.5164406   -1.7672989
S        1.5368519    0.9697097   -0.2002890
Sr      -0.9000930    2.4266300   -0.3525465
Es      -0.7795048   -1.3408384   -1.1254306
Lr       0.2128063   -0.5823904   -1.5749743
