8
Total charge: 1 ; Unpaired electrons: 0 ; Generated by mindlessgen-v0.4.1.dev46+g6bb74ea
H        2.1272391    0.6096027    1.0609914
H       -2.7392737   -0.3587569    0.2924678
He       0.0531353    0.1654611    1.5739314
N        1.8224970    0.0630505    0.2474004
K       -1.0940282   -1.9939385    0.4477434
K       -1.5377348    1.6742788    0.3241362
Ac       1.4739899    1.0478992   -0.0951705
Lr       1.6917978   -1.2287740   -1.4488531
