9
Total charge: 1 ; Unpaired electrons: 6 ; Generated by mindlessgen-v0.4.1.dev46+g6bb74ea
H        0.1156520    2.8041025    0.8626744
H       -2.9967768   -2.3033845    0.2953857
H       -1.5778756   -4.9420146   -0.3820164
H        2.4238068   -1.8897279   -1.4136196
F        0.3102948    0.0116837   -0.6092704
Mg       3.2060059    0.4445712   -0.2023718
Mg       0.9202562    1.6088641    0.2579219
Pa      -1.3289197   -3.0239673   -0.3566728
Np       0.1830948   -1.8997546   -1.7412526
