11
Total charge: 1 ; Unpaired electrons: 6 ; Generated by mindlessgen-v0.4.1.dev46+g6bb74ea
H       -0.2796505    2.5401266    0.6326120
H       -1.6813170   -0.6687929   -0.6823071
H        2.1506052   -1.5522830    2.3504932
H       -0.3552358   -2.1195103    1.5030214
H        2.0085385    0.7779697    0.8144007
H        1.0840667   -1.2978553   -0.7364881
N       -0.7499786   -0.6521328   -0.2560526
Al       0.4546614   -0.5550907   -1.7184281
As      -1.2604375   -0.9900723    1.6134101
Es       0.3148710    0.8782772    0.8430481
Md       1.2553619   -0.8509047    1.0097731
