8
Total charge: 1 ; Unpaired electrons: 1 ; Generated by mindlessgen-v0.4.1.dev46+g6bb74ea
H       -2.4277675   -1.7687264    1.9124410
H       -0.8803060    0.0562135   -0.5433436
H       -2.6397843    1.6662654    1.9353950
Ne       0.9669582    1.2932363    1.0767590
Ne       2.1748332    0.1209898   -0.7185770
Ne       1.0564131   -0.9732652    1.1650009
Ac       0.9155239    0.1705382    1.5394083
Th      -1.8405434   -0.0045293    1.2647551
