10
Total charge: 1 ; Unpaired electrons: 2 ; Generated by mindlessgen-v0.4.1.dev46+g6bb74ea
H        0.0616158   -2.0247497   -2.6966742
H       -1.0341213    2.2507844   -0.1470364
H       -0.5745679   -4.0073512   -0.4101973
H       -0.9793716    2.0400422    1.5785165
C        0.7364610   -1.2269162    0.6407876
C       -0.8549995    1.4925142    0.6300147
Ar      -1.4944917   -0.9453516    3.0690744
Ga       1.0281042    0.6668832    0.4903559
Md      -1.1862516   -0.6468959    0.4637152
Lr      -0.1314877   -2.4261370   -1.0177844
