9
Total charge: 1 ; Unpaired electrons: 5 ; Generated by mindlessgen-v0.4.1.dev46+g6bb74ea
H        2.4132397   -1.9337692   -2.7523719
H        0.7390176    4.8017183   -0.6170498
H       -2.0854202   -2.4313261    1.0618897
Be       0.6575867    3.4843935   -0.6816312
Be      -1.1968998   -1.7914480    0.3611326
Po      -1.4607116   -0.8569114   -1.9026519
Po       1.0784763   -1.1671272    1.0643523
Th       0.4241307    0.8532650   -0.7563335
Np       1.2236776   -1.4075025   -1.6758609
