8
Total charge: 0 ; Unpaired electrons: 1 ; Generated by mindlessgen-v0.4.1.dev46+g6bb74ea
H       -0.6677972    0.1710204   -3.0098664
H       -1.5013874    0.7766721    2.5790063
Li       0.0026047    1.2487248   -2.0079660
O        0.7726498   -2.1185803   -1.4088364
O        0.0292770    1.0442757   -0.2971080
Al       2.1238638   -3.0280169   -1.8151675
Th      -0.6212744    0.2883053    0.9273067
Lr      -0.7950433   -0.9397830   -0.9252679
