8
Total charge: 1 ; Unpaired electrons: 8 ; Generated by mindlessgen-v0.4.1.dev46+g6bb74ea
H       -1.1709173   -2.5554616    0.7661617
H        0.1311548    1.1894202   -3.2519415
He      -2.3240278   -0.1116710    1.8244314
S        0.2605094    0.9738786    0.4653014
S        1.6857923    2.1548085    1.6087666
Ga       2.5515713    1.3365850   -0.4103996
U       -1.4047752   -0.9593604   -0.4027167
Pu       0.2104433    0.0007222   -1.7922317
