9
Total charge: 0 ; Unpaired electrons: 7 ; Generated by mindlessgen-v0.4.1.dev46+g6bb74ea
H       -1.9126760   -0.7729007   -1.8419979
H       -0.6026110    0.9662569   -2.7765650
H       -1.3042017   -1.4119171    1.1756471
O        1.6294835    1.4016635    0.1144984
O       -0.5235619   -0.8614746    1.0447235
Ne      -1.3860270    1.6947268    0.3545640
Sb      -0.2583693   -0.6415935   -2.2745712
Th       2.5341222    0.7746699    1.2863787
Bk       0.5867502    0.1160663    0.2769506
