11
Total charge: 1 ; Unpaired electrons: 12 ; Generated by mindlessgen-v0.4.1.dev46+g6bb74ea
H        1.3770761    1.7241173   -2.4628066
H        0.2400169    1.2481828    0.7146518
H        1.8622925   -1.0169132    0.2563428
H       -0.7391212   -1.0067064   -0.6869940
H       -0.6760415   -0.9647286    3.2104098
F       -0.9507394   -1.2576008    0.3413955
F        2.0221933   -0.4345216   -0.6378412
F       -0.2988882   -0.4227766   -1.4807402
F        1.3774891   -1.2678656    1.1882690
Pu      -0.0904122   -0.4506660    1.6097046
Cm       0.8604304    0.7723959   -1.0378978
