8
Total charge: 1 ; Unpaired electrons: 11 ; Generated by mindlessgen-v0.4.1.dev46+g6bb74ea
H       -1.8225265    2.2228162    2.1760868
He      -2.7386840   -0.3268988    1.3560922
B        1.2898861    0.0781728   -2.2575833
O        0.8457685   -0.7813505   -1.3956505
F       -0.0647046   -0.4656896    1.3424181
Ba       3.7303412   -0.3462577    1.4309418
Cm       0.7639680    0.4523467   -0.0627345
Es      -1.3360845    1.3801790    0.4450162
