8
Total charge: 1 ; Unpaired electrons: 8 ; Generated by mindlessgen-v0.4.1.dev46+g6bb74ea
H        3.0081432    0.0402886    0.7216521
H       -2.6880713   -0.0436554   -1.6519065
H        0.9458429    1.9274497    0.5467032
O       -1.7088113   -0.0554075   -1.6639019
F        0.3969003    1.2107413    1.1926128
F        1.5472193    2.2773923   -0.3348616
Pu       1.3624767    0.5185578   -0.1202903
Fm      -0.0733664   -0.1243989   -1.8975908
