9
Total charge: 0 ; Unpaired electrons: 9 ; Generated by mindlessgen-v0.4.1.dev46+g6bb74ea
H       -0.7006560   -2.0182176   -1.1736999
H        1.6905902   -1.2204522    0.6944738
H       -1.7656979    0.8659495   -1.0853782
H        0.8101358    1.6890761    0.7895015
He      -1.1493444   -0.3617192    1.4903898
He       2.1498240   -2.1608214   -2.1057473
S        1.3315524    0.4960416   -2.2613188
Bk      -0.0311734    0.5955371   -0.4602976
Fm       0.6525374   -0.9295734   -0.7435220
