13
Total charge: 1 ; Unpaired electrons: 8 ; Generated by mindlessgen-v0.4.1.dev46+g6bb74ea
H       -2.3029171    0.5431591    2.6702426
H        1.5621596    0.7036225   -4.4143415
H       -1.6948899   -0.4147218    1.0563537
H        2.2789922    0.6844136    3.1302616
H        1.4034026   -1.9678732    2.2254473
Mg       0.7706931   -0.3058175    2.6795529
Mg      -1.1203607   -1.4495192   -1.5990310
P       -1.2606507    0.7337312    1.7427371
Cl       1.2291648    0.6106344   -0.3642131
Cl       0.4212998    0.9837182   -3.9084903
K        3.3854800   -0.6111398    1.2987618
Bk      -1.9668474    1.6016285   -2.3413290
Md      -0.4672545    2.5989709   -0.3919485
