8
Total charge: 0 ; Unpaired electrons: 11 ; Generated by mindlessgen-v0.4.1.dev46+g6bb74ea
H        0.3377567   -1.3884566   -3.2325841
H        0.3546030   -3.0105400    1.5104068
H       -0.1269986    2.5223897    1.9948758
H       -2.4153075    0.4157994    2.6286994
Po       0.4926676   -0.9872194   -1.5609695
Po      -1.6214281    0.8465867   -1.2866857
Pu       0.8803318   -0.8771691    1.5620693
Am      -0.7818198    0.7113979    1.6419027
