9
Total charge: 1 ; Unpaired electrons: 9 ; Generated by mindlessgen-v0.4.1.dev46+g6bb74ea
H        2.2891161   -0.1333307   -0.1735820
H        1.1514538   -1.6662419   -1.7010539
H        0.4664613   -2.0096919    2.3779939
Be       1.1206109   -0.7602691   -0.3612655
Be      -1.9838727    0.2798664   -1.1499797
P        0.0722176   -1.6497905    1.1080538
P       -0.8988415    0.2267148    0.6491592
U       -0.4865063   -1.1396007   -0.6631481
Am       0.0106722    0.9816830   -1.2399960
