10
Total charge: 1 ; Unpaired electrons: 9 ; Generated by mindlessgen-v0.4.1.dev46+g6bb74ea
H        1.6987887   -1.7480143   -0.8706785
H       -0.2509051    2.1172329    2.1656568
H       -1.5647109   -2.2269564   -1.2299523
H       -1.0779707    1.2125911   -0.6087696
H        2.3514953    0.6509979    1.2816607
O       -0.3065943    0.6120018   -0.2178748
Ar       1.3204215    3.1536973   -0.7456340
Ar      -0.4284632   -1.2610100    2.0731048
Am      -0.0137519   -1.4558405   -0.6884756
Fm       0.7251256    1.2512483    1.1261273
