9
Total charge: 1 ; Unpaired electrons: 11 ; Generated by mindlessgen-v0.4.1.dev46+g6bb74ea
H        1.0643535    0.2757788   -1.9033749
H       -0.2446414    2.0037974    0.4607172
H       -1.3683228   -0.9881822   -0.4708683
H        3.7524652    0.7446093    1.7239167
B        2.8108130    0.5668612    0.9505047
N       -0.4822178   -0.6766040   -0.0140917
K       -2.1057689    0.5916054    1.5292487
Pu       0.8323038   -1.3277752    1.1105044
Bk       0.6559320    0.3562742   -0.1533447
