8
Total charge: 0 ; Unpaired electrons: 6 ; Generated by mindlessgen-v0.4.1.dev46+g6bb74ea
H       -1.2611030   -1.7529299   -1.8831991
H        1.7118540    0.1421972    1.1360710
H       -2.4177788    1.2842599   -0.2444814
Li      -1.2164012    2.0880721    0.7803922
O        0.9280843   -0.1182305    1.3270430
Si      -0.5508673    0.1463883    1.9183342
Ac       1.0532565    0.6459010    0.2864485
Bk      -0.8414759   -0.2838081   -0.7754773
