8
Total charge: 1 ; Unpaired electrons: 5 ; Generated by mindlessgen-v0.4.1.dev46+g6bb74ea
H        2.0890117    0.1867480    0.1535741
Li      -1.9256712   -0.8801660   -1.2095940
C       -1.2524256   -0.9385557    0.7807382
C       -1.3580481    0.1364121    1.2538942
N       -0.7831648    0.7299678   -1.3721380
Rn       0.7164956    3.4155346   -1.2012985
Pa       0.3125527    0.0481590   -0.1928271
Fm      -1.6714829    1.4691274   -0.0960296
