10
Total charge: 1 ; Unpaired electrons: 5 ; Generated by mindlessgen-v0.4.1.dev46+g6bb74ea
H       -2.0911896   -0.2858820   -1.2397420
H        0.4029157    0.4427528    1.9492757
H        0.6339019   -1.1093923    1.6619506
H       -0.4107016    0.9447818   -2.0480964
H       -1.6377970    0.5683952    0.5995953
N        0.7828058   -0.2091465    1.2106125
N        0.1943996    0.6054963   -1.2996828
Se      -0.9066621   -0.3577890   -0.2785959
Pu       2.7188299    2.9053392    0.1008327
Lr       2.3974095    0.4165471   -0.5663558
