11
Total charge: 1 ; Unpaired electrons: 3 ; Generated by mindlessgen-v0.4.1.dev46+g6bb74ea
H        2.2422505    2.5027059    0.4939660
H        2.6089939   -0.2714068   -1.0396996
H        0.0218312    2.4929734   -0.8322148
H       -2.9227908    0.2519557    1.5423944
H        0.0525345   -3.1478666   -2.1841243
C       -2.2090737   -0.2679081    0.9067591
C       -1.4023079   -0.7248221    0.1730759
Mg      -0.3166674    0.5404108    1.8636760
S        1.3588834    0.0280633   -0.7142420
Th      -0.1544096   -1.6811673   -1.1152151
Md       1.0805670    1.9791599   -0.0877595
