9
Total charge: 1 ; Unpaired electrons: 9 ; Generated by mindlessgen-v0.4.1.dev46+g6bb74ea
H        1.9795291    1.8322753    0.4408120
H       -0.1923839   -3.6613740    0.2736822
H       -1.7865530    1.1218444    1.1682008
H        2.7190426    0.8823110   -0.5422130
N        1.8054019    1.0157279   -0.1362552
O       -1.0573156    0.7602827    0.6415618
S       -0.3450157   -2.5286876   -0.3896435
Cf      -1.1078047   -0.7350761   -1.9669351
Es       0.2854755    0.1025544   -0.1771298
