14
Total charge: 1 ; Unpaired electrons: 12 ; Generated by mindlessgen-v0.4.1.dev46+g6bb74ea
H       -1.5814482    0.1936609    0.1714017
H       -0.2162782    1.3062911    2.3561680
H        1.5707245    2.0516620    2.2015473
H       -2.9422297   -0.5989622   -2.4719886
H       -2.6190253   -1.7448134   -0.1523424
H       -1.3044777   -1.6169260    2.0336157
H       -0.3363834   -3.1627924   -0.7355394
Be      -1.6148078   -1.2587634    0.7645233
Mg       1.5155603   -2.3477076    2.6477275
Mg       0.1322341    1.3565973   -1.5439610
S       -0.0504140   -1.7784515   -0.5983320
S        0.8750195    1.0707430    1.6224648
Am      -1.9254941   -0.5030168   -1.1764894
Bk       2.1906659   -0.8167832    0.1372832
