10
Total charge: 1 ; Unpaired electrons: 5 ; Generated by mindlessgen-v0.4.1.dev46+g6bb74ea
H       -0.7833910   -0.9474961    1.2730273
H       -0.8967999   -3.4968327   -1.8365154
H       -0.7962046   -4.0077384   -1.2816993
H        1.2617852    2.2320549   -0.2061983
O        0.5023100    1.6342323   -0.1861876
F       -2.4385016    1.2356512    0.0126767
F       -0.6454898   -0.6013689   -1.4186583
Na      -0.4617551   -2.2495865   -0.2698963
U       -0.9227261    0.4565645    0.2033009
Md      -0.7940746    1.3562762   -1.8709217
