10
Total charge: 1 ; Unpaired electrons: 3 ; Generated by mindlessgen-v0.4.1.dev46+g6bb74ea
H       -2.0453877   -1.3217339   -3.2920808
H        1.0767695   -0.3501785    1.1561479
H       -2.8696552    0.2775616    1.3277236
H        0.3064974    0.9155477    1.6557511
N        0.1411438    0.0541598    1.1197584
Mg       0.5938795   -2.8091125   -2.9381947
Sr      -0.7034203   -2.2703477    3.5103883
Sr       0.5880660    0.6725786   -1.9071931
Md      -1.7376507   -1.8694587   -1.4143010
No      -1.5779180   -0.8930937    0.6943248
