12
Total charge: 0 ; Unpaired electrons: 7 ; Generated by mindlessgen-v0.4.1.dev46+g6bb74ea
H        1.4013942   -0.6201840   -2.4426676
H       -0.2717059   -0.2131323    2.5781197
H        0.0600166   -2.1485876   -0.0618462
H        0.3096130    2.6362808   -1.2429229
H       -2.4182774    1.9168530   -0.2459743
H       -1.1926062   -0.0352700   -1.4859314
H       -1.0681347    1.6860559    3.6101224
N        1.1678355    0.4723228    0.3831912
Kr       3.0194243    0.1349133    0.7724141
Te      -0.0517304    1.3624273    2.3144595
Es       0.3278983   -0.6723004   -1.0260546
Fm      -0.7311908    1.4249450   -0.5190280
