8
Total charge: 1 ; Unpaired electrons: 9 ; Generated by mindlessgen-v0.4.1.dev46+g6bb74ea
H       -1.3243271   -0.0709001   -2.9025379
H        1.2690572   -2.3972009    2.4768038
H       -2.4063535   -1.4379170   -0.3824880
O        2.0016779   -1.8531362   -0.4980900
F        0.8723530   -1.6961045    2.0073342
F        2.9462460   -1.2577631    0.4498993
Pu       1.1634215   -0.4075734   -0.1682706
Es      -0.9911022   -0.7667191   -1.2693897
