9
Total charge: 1 ; Unpaired electrons: 5 ; Generated by mindlessgen-v0.4.1.dev46+g6bb74ea
H        1.5800293   -1.8818850    1.3471649
H       -1.4869388   -1.4028437    1.0960002
H       -1.1677900    1.6428505   -1.5698658
H       -0.1696886    2.3835789    0.3505033
H        0.1731021   -2.6800341   -1.2256341
Be      -1.8718523   -0.1168827    0.8400064
Be      -1.1769395    1.5563680   -0.1694190
Es       1.0226482    0.6195506   -0.9606878
No       0.6058246   -1.5649378   -0.0128511
