8
Total charge: 1 ; Unpaired electrons: 6 ; Generated by mindlessgen-v0.4.1.dev46+g6bb74ea
H       -2.1859802    1.2359336   -4.0348989
H        1.2282273    2.8002924   -2.8570047
H       -0.7659821   -0.8957428   -1.0801109
Be       0.8546556    0.2230431    2.2880109
Cl      -1.6297142    1.5810794   -2.9388290
K       -0.6215685    2.7918614    2.1305849
Pu       1.0210173   -0.0305533   -0.6998714
No       0.3518366    2.4476944   -1.3263388
