11
Total charge: 1 ; Unpaired electrons: 2 ; Generated by mindlessgen-v0.4.1.dev46+g6bb74ea
H       -0.0185534    1.1436786    0.3699030
H       -1.9273622   -2.7481533   -0.1294741
H        0.6745486    1.0744643   -2.9300541
H       -2.4270124   -0.6842495   -2.5839988
H       -2.3534716    2.9251294    3.6412602
H        0.6046109   -2.0940727   -1.5253967
B       -1.2204022    0.6655635    0.5988816
Ar       2.8791346    0.0668172   -0.2446021
Kr      -1.8627578    2.0047064    2.3916906
Ac      -1.6330466   -1.1870559   -1.0563831
Pa       0.4016761   -0.2460728   -1.5726438
