145
Generated by ctcharge_nh4f-v0.1.0
F       -1.1328218    0.0000000    0.0000000
O       -2.0844557    0.6241563    2.3161802
H       -1.8443633   -0.1628770    2.8346627
H       -1.7655536    0.4349760    1.4129173
O       -0.7520246   -2.1105856    1.6444415
H       -1.0875583   -1.4846043    0.9842348
H       -0.8778486   -2.9906512    1.2589381
O       -6.1037711   -0.5815390   -0.7226435
H       -6.7915842   -0.8813974   -1.3447322
H       -6.5029197    0.1481033   -0.2154793
O       -3.4236872   -3.5954871    2.3178977
H       -3.3124623   -3.4519949    3.2774248
H       -2.6529532   -4.0961062    2.0243692
O       -3.3962780    0.3519950   -1.5095016
H       -2.7510364   -0.0003415   -0.8770167
H       -4.2489263   -0.0480424   -1.2744021
O       -5.6882985    3.5106093    1.7811519
H       -5.5111292    4.0723401    1.0092075
H       -4.8554027    3.4970479    2.2828780
O       -4.6977587    0.7584644    1.5731822
H       -4.9183691    1.3674336    0.8454442
H       -3.7687572    0.9581639    1.7942825
O       -2.8148645    2.5354868    0.2589886
H       -2.9464798    3.4725697    0.0518312
H       -3.1371562    2.0281811   -0.5015613
O       -5.4162137    2.2662911   -0.8232222
H       -4.7934356    2.9108866   -1.1889179
H       -5.6272979    1.6923489   -1.5857363
O       -0.7228938    2.4530636   -4.0748069
H       -1.6620427    2.3282234   -4.2643086
H       -0.6652246    3.1112484   -3.3600823
O       -7.3754019    1.3554679    0.9386920
H       -6.8536271    2.1519215    1.1332805
H       -7.3694015    0.8327939    1.7557492
O       -1.3254590   -1.1991367    4.2759208
H       -0.5164200   -0.8894527    4.7128649
H       -1.0351445   -1.8988626    3.6655222
O       -3.4532721   -1.5160905    0.5504092
H       -3.4825904   -2.2165917    1.2350664
H       -4.0397811   -0.8078491    0.8661406
O       -5.0295415   -1.4222171    3.4893201
H       -4.6373608   -0.7017485    2.9807858
H       -5.1867882   -2.1139906    2.8208866
O       -6.0172396   -2.5885662    1.2166236
H       -6.9296961   -2.9094897    1.2141058
H       -6.0043381   -1.9023425    0.5241081
O       -7.7527110   -0.7331804    2.7962431
H       -6.9003460   -1.1205779    3.0469216
H       -8.1817286   -1.4081386    2.2455992
O       -2.7773480   -5.1956482   -1.1169116
H       -3.1013698   -5.4250728   -1.9934037
H       -3.5928317   -5.1597739   -0.5628565
O       -3.4094641    1.5266530   -4.0029007
H       -4.3784087    1.5263847   -4.0784071
H       -3.2642595    1.0089009   -3.1887402
O       -8.7553931   -2.6149984    0.8513708
H       -9.6901552   -2.8930032    0.8821201
H       -8.8126965   -1.8112091    0.2970658
O       -3.1255256    3.2290882    2.9718178
H       -3.0160301    2.6453400    3.7467633
H       -2.8862422    2.6696671    2.2181861
O       -1.5888489   -2.6436433   -1.2395236
H       -2.0335092   -1.9051334   -0.8035587
H       -2.1897782   -3.4032934   -1.1504249
O       -8.4958392    2.0481989   -2.4029223
H       -8.3150301    2.9976334   -2.4034586
H       -8.8211919    1.9006700   -1.4989545
O       -4.5640278   -2.9130402   -1.5811487
H       -5.3861978   -3.3414015   -1.2908565
H       -4.2769235   -2.3764042   -0.8199908
O       -3.5403325    3.7711874   -2.3189721
H       -2.6115368    4.0311015   -2.2167597
H       -3.5412218    3.1069525   -3.0288394
O       -3.2816154   -3.0385669    5.0400726
H       -2.5981637   -2.3488949    5.0442372
H       -4.1032112   -2.5517821    4.8881956
O       -5.0081506   -5.1303937    0.4031756
H       -5.8189530   -4.8981781   -0.0690108
H       -4.8928031   -4.4344987    1.0677950
O       -5.4765528   -1.5253741   -3.8426233
H       -5.0801801   -1.9306605   -3.0528269
H       -4.7397080   -1.4096165   -4.4774678
O       -1.0890445   -2.0401999   -3.9832515
H       -0.9518915   -1.3129415   -3.3478281
H       -1.1303574   -2.8324441   -3.4279246
O       -5.9961257    1.0893415   -3.2222374
H       -5.9190572    0.1238299   -3.3560529
H       -6.9412326    1.2804353   -3.1003500
O       -7.5275105    4.1049185   -0.8083229
H       -7.0156208    4.9068805   -0.6491781
H       -6.8731256    3.3894115   -0.7213499
O       -9.3425055   -0.1958568   -0.2500061
H      -10.1837607   -0.0975364    0.2490661
H       -8.7707914    0.5055971    0.1044901
O       -7.8422742    3.1344928    3.5662485
H       -7.2349368    2.5912552    4.0886754
H       -7.2666250    3.5424782    2.9032591
O       -9.7495793    1.4101749    2.5940732
H       -9.2446638    2.1430740    2.9980487
H       -9.2226190    0.6302317    2.8084913
O       -5.7635680    1.2944875    4.1214610
H       -6.1668341    0.4219251    4.1764125
H       -5.4915236    1.3882705    3.1937507
O       -3.2648836   -1.0256089   -5.3524064
H       -2.4587775   -1.4175062   -4.9714837
H       -3.1886337   -0.0779782   -5.1729088
O       -7.9006643   -1.6780717   -2.6111504
H       -7.3087768   -1.6735684   -3.3773792
H       -8.7321233   -1.2542065   -2.8877158
O       -3.0389836    1.2317691    4.9453523
H       -4.0069487    1.1858879    4.8979624
H       -2.7152092    0.3541044    4.7143046
O      -10.1878616   -0.0875066   -2.8799481
H       -9.7396677    0.7163533   -3.1773844
H       -9.9505028   -0.1388542   -1.9352065
O       -3.2628253   -4.0329259   -3.8035929
H       -3.3236574   -3.3933593   -4.5192594
H       -3.6516695   -3.5970903   -3.0282168
O       -9.7680069    2.6368617    0.0260277
H       -9.1064699    3.3446208   -0.0163396
H       -9.6838722    2.2572730    0.9172875
O       -4.9896238    5.2698074   -0.3786617
H       -4.2007873    5.6431263    0.0402043
H       -4.6645251    4.9547509   -1.2330548
O       -7.1948427   -3.9397919   -1.1147844
H       -7.4665729   -3.3358704   -1.8244227
H       -7.8292815   -3.7483580   -0.4078197
O       -0.6928555   -4.8417403   -3.0765227
H       -0.9312657   -4.8991414   -2.1461768
H       -1.5408166   -4.7722563   -3.5428775
O       -2.2624249    5.3694906    0.2178122
H       -1.6720837    5.3065384    0.9786430
H       -1.6943374    5.2436541   -0.5570097
O      -11.7090919    0.0924277    1.0737511
H      -12.0497271    0.6437620    0.3423905
H      -11.3690678    0.7071578    1.7398095
O      -12.0142492    1.5025318   -1.2578763
H      -11.6629519    0.9750326   -1.9878107
H      -11.3002021    2.1047017   -0.9999555
O      -11.4290614   -2.5729952    0.3116090
H      -11.7263521   -1.7897399    0.8003946
H      -11.4587868   -2.3110453   -0.6111561
O       -0.8794511   -4.0708679    3.8975125
H       -1.6182796   -4.2243712    4.4969005
H       -1.0533514   -4.5745182    3.0927384
