164
Generated by ctcharge_nh4f-v0.1.0
N        2.4066644   -0.0000000   -0.0000000
H        2.7213800   -0.9670444   -0.0269174
H        2.7359074    0.4946353   -0.8175525
H        2.7160681    0.4467624    0.8596256
H        1.3044653   -0.0000000    0.0000000
O        1.6749275    2.0669313   -1.9202221
H        2.1900002    2.8847128   -1.9941849
H        1.1029252    2.1892583   -1.1495694
O        4.1681896   -1.8808648   -0.7985089
H        3.7705209   -1.7591926   -1.6741504
H        4.2286040   -2.8432598   -0.6641958
O        3.5959786    2.8662507   -0.0154592
H        3.0713861    2.5656728    0.7415628
H        4.0114165    3.6978006    0.2799470
O        4.7038685    5.1175715    1.1089855
H        4.9244140    4.5045121    1.8315756
H        3.8143094    5.4288193    1.3289684
O        4.9047076   -0.3204083    4.1202799
H        4.4854305   -1.1209734    4.4965497
H        5.8622242   -0.4768136    4.0857450
O        4.4596450    1.1695839   -1.9982002
H        3.9809548    1.8496539   -1.4949682
H        3.8091526    0.7194006   -2.5621269
O        4.9771692    2.8717150    2.7533932
H        4.7308576    2.1294759    2.1846988
H        5.9336809    2.7739298    2.8848819
O        1.1490400   -2.4383319   -0.7430420
H        0.1807002   -2.3638345   -0.8224664
H        1.4370645   -2.7001350   -1.6389546
O        2.1283680    1.9718627    2.2185803
H        2.5605784    1.8640365    3.0913625
H        1.2261242    1.6522962    2.3793599
O        6.4466216    1.5518097    0.0185058
H        5.7535264    1.0445572    0.4823245
H        5.9766394    2.2545584   -0.4541411
O        4.5604826    0.2353910    1.4987580
H        4.6190285   -0.0418033    2.4391601
H        4.6222879   -0.6053288    1.0216170
O        7.4768910   -0.2640220    3.0814031
H        7.1383942   -0.5738791    2.2215338
H        7.5484821    0.7022171    2.9760809
O        1.9660936    4.7409702    1.6553937
H        1.0427232    4.9751249    1.8193239
H        2.0309328    3.8172261    1.9531730
O        1.3258154   -0.1969719    5.0132030
H        1.8110630    0.6223212    5.1864824
H        1.4251658   -0.3343617    4.0501123
O        6.5961667   -1.5691764    0.8305759
H        5.8680559   -2.1611744    1.0656437
H        6.4776367   -1.3827711   -0.1166561
O        1.6902521   -3.4703561   -3.2665146
H        0.8566286   -3.9719244   -3.3265686
H        1.7365798   -2.9436695   -4.0763918
O        1.5285858   -0.9599695    2.3654032
H        2.1251681   -1.7144375    2.4895288
H        0.6791204   -1.3586233    2.1000576
O       -0.7100236    4.0540537    2.2222993
H       -1.6471758    3.9726193    2.4881382
H       -0.2797682    3.4919346    2.8874600
O        4.2865122   -4.5618277   -0.1055583
H        5.2381638   -4.6271251    0.0835690
H        4.2322407   -4.7385052   -1.0752350
O        7.6776621    2.4247767    2.3347398
H        8.6462966    2.4317002    2.2728463
H        7.3881039    2.2695258    1.4165332
O       -0.8462362    3.7107803   -1.6801443
H        0.0145524    4.1761986   -1.6227504
H       -0.8177843    3.0763916   -0.9427833
O       -1.2196833   -1.2073446    4.4008688
H       -0.4076840   -0.8986001    4.8340890
H       -0.9414464   -1.9322463    3.8192020
O        6.4541313   -0.7291832   -1.8254194
H        5.7639511   -0.0606163   -1.6816952
H        7.0238980   -0.3651255   -2.5276692
O        8.6917767   -2.3525761   -1.2755973
H        7.9094836   -2.7209842   -0.8382373
H        8.4935697   -2.4223952   -2.2320746
O       -0.2432079    1.7827913    3.6736459
H       -0.2923887    1.4656750    4.5806276
H       -0.9900079    1.3447683    3.2155296
O        1.6144247   -4.6559315    0.7507073
H        2.4675891   -4.9999089    0.4473860
H        1.4895868   -3.8334250    0.2292397
O        4.0726331   -2.5471609    1.9796464
H        3.9609002   -2.9251540    2.8580622
H        3.8367236   -3.2497659    1.3577831
O        2.4453025   -0.6788898   -2.7312944
H        2.3986211   -1.0641140   -3.6231874
H        1.5210913   -0.6000270   -2.4517866
O        6.1661489    4.1329139   -1.1567682
H        5.8053017    4.6946551   -0.4544332
H        7.0991243    3.9953369   -0.9129474
O        4.1481116   -4.7106614   -2.7826737
H        3.2258236   -4.4962764   -2.9999964
H        4.6386147   -3.9743886   -3.1802230
O        3.2803711    1.8209653    4.7054193
H        3.9080828    1.0820642    4.5955722
H        3.8088478    2.5980726    4.4843454
O       -1.1567561   -4.7414587    1.1312953
H       -0.2182811   -4.9166506    0.9487372
H       -1.6399666   -5.0330904    0.3436447
O        8.8364372    0.3758659   -0.8746709
H        8.8238091   -0.5998088   -0.9932867
H        7.9223593    0.5671107   -0.5975982
O       10.1274185    1.6033917    1.3580181
H       10.3385535    0.9870177    2.0940191
H        9.6415792    1.0390787    0.7353438
O       -0.1601711    1.8898161    0.3978459
H       -0.4447409    2.5943311    1.0075872
H       -0.9365792    1.3097446    0.3202349
O        1.5575293    4.8646085   -1.1542642
H        2.3522709    4.8510918   -1.7042407
H        1.8582896    4.7427342   -0.2383443
O       -0.2038665   -0.0594788   -1.7258909
H       -0.3546861    0.6689152   -2.3540693
H       -0.9879705   -0.0822599   -1.1462236
O        3.7486389    3.9649928   -2.7425533
H        4.0856535    3.6210750   -3.5765286
H        4.5240239    4.0260050   -2.1667452
O        1.8515920   -3.6332139    3.3075170
H        1.8012260   -4.0953149    2.4499953
H        0.9682225   -3.7389952    3.6916080
O        8.7674513    3.2921500   -0.4948117
H        9.3620934    3.2926591    0.2642991
H        8.8267101    2.3939789   -0.8415169
O        6.1192875    2.6063211   -3.6202228
H        6.4310556    3.3290972   -3.0618429
H        5.5814489    2.0537630   -3.0171980
O        8.0709874    0.5761443   -3.6454367
H        7.5062452    1.3539293   -3.7914658
H        8.6290351    0.7835842   -2.8845333
O        1.8180389    1.3913202   -4.6919044
H        1.8612018    1.3629903   -3.7230617
H        0.9127082    1.6966711   -4.8444005
O       10.2993428   -0.4837897    3.0588625
H       10.4414966   -1.1809499    2.3994617
H        9.3637797   -0.5560622    3.3014718
O        5.0578599   -2.1934799   -3.6604255
H        5.4532377   -1.7740168   -2.8734320
H        4.7587975   -1.4461546   -4.2001446
O        7.9090942   -2.3148321   -3.9390275
H        6.9566180   -2.4690854   -4.0324842
H        8.0444755   -1.3911870   -4.1854263
O        4.4826715    0.3944930   -4.7517674
H        5.1077408    1.1188871   -4.8507125
H        3.6098415    0.7538070   -4.9629468
O        1.5004937   -1.3927935   -5.2390080
H        1.6320077   -0.4410703   -5.3650355
H        0.5770289   -1.4834131   -4.9512026
O       10.5485424   -2.2273685    0.8287691
H        9.9610244   -2.3611117    0.0678890
H       11.2329993   -1.6293197    0.4851529
O        7.0798040   -4.2544587    0.1860510
H        7.7238498   -4.8996454   -0.1112576
H        7.4552603   -3.8882120    1.0158182
O        8.3994437   -3.2462305    2.3861386
H        8.0002146   -2.3825227    2.5370710
H        9.2749092   -3.0555600    2.0196250
O       11.7305521    0.0162192   -0.3703341
H       10.9428297    0.1772702   -0.9003857
H       11.7157854    0.7051456    0.3053322
O        3.3193291   -2.2328785    5.2233438
H        2.6194716   -1.5854695    5.4067486
H        2.8784961   -2.9166581    4.6983048
