142
Generated by ctcharge_nh4f-v0.1.0
F       -2.3328218    0.0000000    0.0000000
O       -2.2869074    0.4655452    2.4632784
H       -1.9618069   -0.3507584    2.8761675
H       -2.1953866    0.2999771    1.4927179
O       -0.9718303   -1.9067336    1.5585040
H       -1.4680661   -1.3920588    0.8991043
H       -1.0883083   -2.8301613    1.2829623
O       -6.4463004   -0.7874728   -0.6675943
H       -7.1355646   -1.0540262   -1.3015035
H       -6.7846266   -0.0054249   -0.2013602
O       -3.5933555   -3.8564110    2.5534241
H       -3.4129840   -3.5965078    3.4753407
H       -2.7620893   -4.1736953    2.1822121
O       -3.9187773   -0.1633555   -1.9404132
H       -3.2862434   -0.1267484   -1.1906046
H       -4.7679840   -0.3773536   -1.5214013
O       -5.6907323    3.4099030    1.7941232
H       -5.4523032    3.9747312    1.0427039
H       -4.9016917    3.3961140    2.3628160
O       -4.8240227    0.5849345    1.4114201
H       -5.1116145    1.1023189    0.6385291
H       -3.9210036    0.8866283    1.5805456
O       -2.8095526    2.6226068    0.2953637
H       -3.2966703    3.4137371    0.0352823
H       -3.0947473    1.9007229   -0.2795718
O       -5.3978084    2.1196855   -0.9194743
H       -4.7879116    2.7658990   -1.3075975
H       -5.7026134    1.6131579   -1.6997824
O       -0.7731913    1.8198644   -3.7604856
H       -1.7022453    1.7739140   -4.0273011
H       -0.6984010    2.5906837   -3.1738831
O       -7.4678420    1.3647293    0.9485191
H       -6.9000006    2.1271075    1.1529893
H       -7.4641913    0.8247431    1.7554488
O       -3.7460130   -2.0082011    0.5319449
H       -3.8503907   -2.5726320    1.3179410
H       -4.0303509   -1.1148232    0.7734821
O       -4.9195376   -1.3929551    3.5358424
H       -4.4524948   -0.7684184    2.9668261
H       -5.1853687   -2.1108015    2.9360801
O       -6.2144759   -2.6908440    1.4414670
H       -7.1164572   -3.0348365    1.4217730
H       -6.1711621   -2.0869631    0.6785496
O       -7.7859840   -0.7223197    2.8218343
H       -6.8949185   -1.0821926    2.9351852
H       -8.2543715   -1.3995038    2.3075204
O       -2.8628771   -5.0574699   -1.1207323
H       -3.2225180   -5.1225414   -2.0111499
H       -3.6693205   -5.0573220   -0.5529421
O       -3.5885024    1.4846069   -4.0567441
H       -4.5132866    1.6132869   -4.3136793
H       -3.6795128    0.8785729   -3.2846974
O       -8.9082714   -2.5737839    0.9127478
H       -9.8494171   -2.8339202    0.9179386
H       -8.9254808   -1.7682864    0.3604963
O       -3.1708500    3.1370823    3.0333924
H       -3.0663607    2.5982828    3.8435189
H       -2.9792926    2.5141698    2.3175568
O       -1.6404014   -2.5270653   -1.2045167
H       -2.1926542   -1.7973201   -0.8846328
H       -2.2033367   -3.3130803   -1.0980294
O       -8.6377538    2.1397384   -2.3344355
H       -8.4054250    3.0770487   -2.3042135
H       -8.9467560    1.9735283   -1.4281162
O       -4.8017786   -3.0478034   -1.7618080
H       -5.6527525   -3.4110903   -1.4680284
H       -4.4424536   -2.6035182   -0.9695151
O       -3.5647390    3.6911424   -2.3732114
H       -2.6219547    3.8115216   -2.1826661
H       -3.5949978    3.0245773   -3.0831110
O       -3.2294594   -2.9745765    5.1780204
H       -2.5414124   -2.2897350    5.1487147
H       -4.0451545   -2.4852573    5.0025032
O       -5.1079541   -5.1199885    0.3983339
H       -5.9213502   -4.8311300   -0.0362716
H       -5.0050930   -4.5350191    1.1631607
O       -5.6160317   -1.4314702   -3.8849605
H       -5.2737443   -1.8336977   -3.0654017
H       -4.8172555   -1.3299282   -4.4351251
O       -0.8481636   -1.8421316   -3.7912636
H       -0.7272266   -1.3102939   -2.9840855
H       -1.1217806   -2.7079084   -3.4522158
O       -6.2075572    1.1999182   -3.3625407
H       -6.1025150    0.2348327   -3.4790392
H       -7.1435575    1.3647900   -3.1660889
O       -7.4677519    4.0531325   -0.6994168
H       -6.9168906    4.8260048   -0.5275711
H       -6.8444024    3.3073947   -0.6762192
O       -9.4405740   -0.1592186   -0.2561557
H      -10.2941179   -0.0804074    0.2252600
H       -8.8872760    0.5433049    0.1244125
O       -7.8973914    3.0814700    3.5280636
H       -7.2614101    2.5072277    3.9806284
H       -7.3574139    3.5249836    2.8595357
O       -9.8379773    1.3556473    2.6239178
H       -9.3323519    2.0939042    3.0165574
H       -9.2963341    0.5840996    2.8318152
O       -5.7572801    1.2693070    4.0085708
H       -6.0752692    0.3705869    4.1520838
H       -5.5081538    1.2894076    3.0699164
O       -3.1624367   -1.1195956   -5.1739427
H       -2.3578118   -1.3567694   -4.6755758
H       -3.1949606   -0.1546432   -5.1276376
O       -8.0945290   -1.8018351   -2.7249852
H       -7.4348791   -1.7105967   -3.4282023
H       -8.8858530   -1.3144155   -3.0104516
O       -3.0950693    1.2620008    5.0782622
H       -4.0535393    1.2180975    4.9291484
H       -2.7396498    0.4507165    4.6988368
O      -10.2500436   -0.0215875   -2.9042063
H       -9.7892550    0.7861328   -3.1702387
H      -10.0073982   -0.1145087   -1.9643554
O       -3.1790949   -3.7670536   -3.9114641
H       -3.3952768   -3.1908811   -4.6527282
H       -3.7025105   -3.4278997   -3.1662184
O       -9.8239111    2.7166096    0.1241710
H       -9.1022186    3.3631962    0.1039771
H       -9.7506269    2.2780049    0.9883841
O       -4.8633270    5.1224002   -0.3385123
H       -4.0717513    5.5650533    0.0065399
H       -4.6127308    4.8771425   -1.2397707
O       -7.3964617   -3.9475995   -1.0548161
H       -7.7083851   -3.4262981   -1.8108338
H       -7.9708510   -3.6581023   -0.3291078
O       -0.7376858   -4.7760585   -3.0834020
H       -1.0609788   -4.7937037   -2.1765474
H       -1.5372538   -4.6588112   -3.6196815
O       -2.1501647    5.5104713    0.1283814
H       -1.6320144    5.2331834    0.8931731
H       -1.6870746    5.1311818   -0.6312343
O      -11.8160165    0.1193699    1.0480345
H      -12.1263008    0.6988874    0.3250776
H      -11.4578996    0.7052594    1.7306246
O      -12.0289030    1.5914370   -1.2572723
H      -11.6683506    1.0707910   -1.9882717
H      -11.3179190    2.1888109   -0.9817874
O      -11.5883355   -2.5813113    0.3916669
H      -11.8560667   -1.7571002    0.8284164
H      -11.6578924   -2.3968279   -0.5471278
O       -0.8605569   -4.0140509    3.8973644
H       -1.5857419   -4.1567174    4.5167136
H       -1.0692914   -4.5052019    3.0926575
