142
Generated by ctcharge_nh4f-v0.1.0
F       -2.0328218   -0.0000000    0.0000000
O       -2.2205238    0.5500616    2.4167232
H       -1.9346360   -0.2637344    2.8617734
H       -2.0711034    0.3698291    1.4541675
O       -0.8405091   -1.9440070    1.5642476
H       -1.3053399   -1.3659791    0.9329246
H       -1.0072165   -2.8463515    1.2504190
O       -6.3137127   -0.6928811   -0.6863243
H       -7.0081803   -0.9673940   -1.3111874
H       -6.6645908    0.0728418   -0.2006464
O       -3.5177600   -3.7484667    2.4575001
H       -3.3627168   -3.5458569    3.3986473
H       -2.6939868   -4.1094957    2.1086134
O       -3.7704446    0.1876694   -1.7758829
H       -3.1073815    0.0166615   -1.0716926
H       -4.6025915   -0.1736758   -1.4341119
O       -5.7175868    3.4684692    1.8034215
H       -5.5010170    4.0109321    1.0287644
H       -4.9052687    3.4511339    2.3377324
O       -4.7754405    0.6810316    1.4736953
H       -5.0115001    1.2547680    0.7228965
H       -3.8619288    0.9236348    1.6955388
O       -2.8478826    2.5877432    0.2517603
H       -3.1249731    3.4829904    0.0189042
H       -3.1462215    2.0025400   -0.4564382
O       -5.4889100    2.2411422   -0.8525035
H       -4.8402144    2.8608143   -1.2160179
H       -5.7206586    1.6918202   -1.6278579
O       -0.7464644    2.0397150   -3.8561708
H       -1.6748430    1.9807924   -4.1225258
H       -0.6858095    2.7870441   -3.2385109
O       -7.4433423    1.3580087    0.9658169
H       -6.8844749    2.1324180    1.1473084
H       -7.4032850    0.8171171    1.7702202
O       -3.6761696   -1.8113896    0.5368772
H       -3.7402949   -2.4193171    1.2959229
H       -4.0456898   -0.9596567    0.8133475
O       -4.9567424   -1.4008087    3.5244797
H       -4.5291272   -0.7256736    2.9838872
H       -5.1672603   -2.1108074    2.8929680
O       -6.1334986   -2.6503434    1.3535761
H       -7.0388273   -2.9866823    1.3315198
H       -6.0973878   -2.0108052    0.6191714
O       -7.7566919   -0.7437941    2.8249906
H       -6.8796905   -1.1199105    2.9903620
H       -8.2113660   -1.4128070    2.2883191
O       -2.8155593   -5.0906426   -1.1125605
H       -3.1467983   -5.3058107   -1.9895307
H       -3.6304943   -5.0657475   -0.5563194
O       -3.5251755    1.5185892   -4.1091401
H       -4.4697452    1.6145889   -4.3021860
H       -3.5465988    0.9697600   -3.2941993
O       -8.8374785   -2.6031385    0.8850688
H       -9.7766684   -2.8685345    0.9015607
H       -8.8704268   -1.7967327    0.3338663
O       -3.1666861    3.1759605    2.9894853
H       -3.0532411    2.6136484    3.7815052
H       -2.9687632    2.5804990    2.2519631
O       -1.6283258   -2.5252392   -1.2294978
H       -2.0884655   -1.7709551   -0.8278089
H       -2.2373174   -3.2745116   -1.1237608
O       -8.5714505    2.1012934   -2.3444591
H       -8.3743704    3.0471749   -2.3346073
H       -8.8848479    1.9449907   -1.4375261
O       -4.6968162   -2.9724486   -1.6942746
H       -5.5312703   -3.3755964   -1.4046373
H       -4.3768691   -2.4839076   -0.9095140
O       -3.5726052    3.7060217   -2.3530042
H       -2.6303212    3.8908516   -2.2242222
H       -3.6060006    3.0372025   -3.0595759
O       -3.2560575   -3.0143478    5.1316516
H       -2.5755788   -2.3221170    5.0997927
H       -4.0792836   -2.5342381    4.9677454
O       -5.0545093   -5.1204664    0.3963880
H       -5.8656712   -4.8472364   -0.0527223
H       -4.9415941   -4.4899335    1.1232670
O       -5.5567432   -1.4451402   -3.8365667
H       -5.2022693   -1.8551655   -3.0260154
H       -4.7822819   -1.3708083   -4.4267136
O       -0.9029265   -1.9058805   -3.8734466
H       -0.7738938   -1.3217102   -3.1031193
H       -1.1475744   -2.7569478   -3.4801426
O       -6.1128150    1.1857563   -3.3059636
H       -5.9964614    0.2205101   -3.4078637
H       -7.0561234    1.3397437   -3.1379293
O       -7.5489168    4.1404503   -0.7470909
H       -7.0177315    4.9266912   -0.5745070
H       -6.9063426    3.4104690   -0.6973949
O       -9.3950790   -0.1832522   -0.2446916
H      -10.2441135   -0.0949853    0.2426854
H       -8.8311270    0.5133339    0.1316766
O       -7.9029782    3.1176130    3.5524163
H       -7.2734382    2.5569876    4.0294125
H       -7.3541580    3.5424172    2.8781127
O       -9.8001927    1.3621653    2.6115360
H       -9.2989243    2.1030771    3.0057466
H       -9.2547909    0.5924138    2.8155747
O       -5.7872025    1.2854545    4.0532218
H       -6.1608516    0.4029662    4.1527801
H       -5.5279847    1.3394737    3.1186947
O       -3.1970911   -1.1328353   -5.2220378
H       -2.3763720   -1.4126522   -4.7737113
H       -3.1989804   -0.1690198   -5.1409577
O       -8.0189249   -1.7575583   -2.6686916
H       -7.3796869   -1.6773928   -3.3918337
H       -8.8253311   -1.2892159   -2.9457614
O       -3.0922234    1.2648289    5.0305141
H       -4.0550170    1.2178468    4.9165722
H       -2.7494712    0.4242954    4.7080824
O      -10.2178990   -0.0459146   -2.8824832
H       -9.7534652    0.7583050   -3.1536697
H       -9.9839723   -0.1265842   -1.9389558
O       -3.2088383   -3.8556837   -3.8852170
H       -3.4510209   -3.2702531   -4.6103268
H       -3.6726256   -3.5059585   -3.1057810
O       -9.8056614    2.6821500    0.0848556
H       -9.1289985    3.3759151    0.0498693
H       -9.7060428    2.2667728    0.9578350
O       -4.9476139    5.1962978   -0.3606779
H       -4.1559503    5.6058259    0.0191992
H       -4.6627429    4.9194645   -1.2419026
O       -7.2977606   -3.9511443   -1.0862830
H       -7.5921021   -3.3862093   -1.8184740
H       -7.8951249   -3.7060273   -0.3633092
O       -0.7288306   -4.7962143   -3.0784572
H       -1.0287198   -4.7497532   -2.1643003
H       -1.5405535   -4.7122730   -3.6022783
O       -2.2246277    5.4720252    0.1618578
H       -1.6575003    5.2916896    0.9212118
H       -1.7052375    5.1991827   -0.6076260
O      -11.7733263    0.1029343    1.0546754
H      -12.0906300    0.6723318    0.3265883
H      -11.4177812    0.6992058    1.7296790
O      -12.0229577    1.5542045   -1.2609164
H      -11.6642565    1.0307401   -1.9906717
H      -11.3087474    2.1493108   -0.9876406
O      -11.5155233   -2.5862730    0.3657899
H      -11.7892070   -1.7726558    0.8184504
H      -11.5648499   -2.3755106   -0.5688558
O       -0.8787945   -4.0465564    3.8950917
H       -1.6023170   -4.1955083    4.5145769
H       -1.0704480   -4.5601451    3.1002638
